**=~~=~~=~~=~~=~~=~~=~~=~~=~~=~~=~~=~~=~~=~~=~~=~~=~~=~~=~~=~~=~~=~~=~~=~~=~~=
**                                 numgeo-ACT                                 
**                      Copyright (C) 2022 Jan Machacek                       
**=~~=~~=~~=~~=~~=~~=~~=~~=~~=~~=~~=~~=~~=~~=~~=~~=~~=~~=~~=~~=~~=~~=~~=~~=~~=
**
*Node
1 , 0.0 , 0.00
2 , 1.0, 0.00
3 , 1.0, 1.0
4 , 0.0, 1.0
**
*Nset, Nset=nall
1 , 2 , 3 , 4 
*Nset, Nset=nleft
1 , 4
*Nset, Nset=nright
2 , 3
*Nset, Nset=nbottom
1 , 2
*Nset, Nset=ntop
3 , 4
**
*Element, Type=CAX4R
1 , 1 , 2 , 3 , 4
**
** ----------------------------------------
**
*Elset, Elset = eall
1
**
** ----------------------------------------
**
*Solid Section, Elset = eall, material=Hardening-Soil-MN-Bricks
*Hourglass stiffness
100
**
** ----------------------------------------
**
*Material, name = Hardening-Soil-MN-Bricks
*Depvar
73,
*User Material, constants=16, unsymm
30d3, 30d3, 90d3, 0.55, 0, 42, 16, 0.25
** pref, K0nc, Rf, Eiref, alpha, Hpp, gamma_07, G0
100, 0.4, 0.9, 65.5d3, 1.46, 72028, 2e-4, 108e3
*Density
1.8
**
** ----------------------------------------
**
*Initial conditions, Type = stress, geostatic
eall, -100, 0.0, -100, 1., 1, 1
**
*Initial conditions, Type=solution, user
**
** ----------------------------------------
**
*Amplitude, name = LoadingRamp
0.0, 0.0, 1.0, 1.0
*Amplitude, name = const
0.0, 1.0, 1.0, 1.0
**
** ----------------------------------------
**
*Step, name=Geostatic, inc=1, unsymm=yes
*Static
1, 1, 1, 1
**
***DLoad, amplitude=const
**eall, grav, 10.0, 0., -1
**
*DLoad, amplitude=const
eall, p3, 100
*DLoad, amplitude=const
eall, p2, 100
**
*Boundary
nleft, 1, 1, 0
nbottom, 2, 2, 0.
**
*El print, Elset = eall
S, E
**
*End Step
**
** ----------------------------------------
**
*Step, name = Loading, inc = 100000, unsymm=yes
*Static
0.0025, 1., 0.0025, 0.0025
**
*Boundary, amplitude = LoadingRamp
ntop, 2, 2, -0.1
**
*El print, Elset = eall
S, E
**
*End Step