**
** PARTS
**
*Part, Name=Soil
** Mesh converted from numgeo mesh_Soil.inp
** Only the element type is changed: u8-solid-ax -> CAX8
*Node
1, 1, 0
2, 0, 0
3, 1, 10
4, 0, 10
5, 10, 0
6, 10, 10
7, 0.8, 0
8, 0.6, 0
9, 0.4, 0
10, 0.2, 0
11, 1, 9.8
12, 1, 9.6
13, 1, 9.4
14, 1, 9.2
15, 1, 9
16, 1, 8.8
17, 1, 8.6
18, 1, 8.4
19, 1, 8.2
20, 1, 8
** ... 7681 like lines cut
*Element, Type=CAX8
251, 1, 59, 250, 7, 2656, 2853, 2852, 2602
252, 59, 58, 251, 250, 2655, 2855, 2854, 2853
253, 58, 57, 252, 251, 2654, 2857, 2856, 2855
254, 57, 56, 253, 252, 2653, 2859, 2858, 2857
255, 56, 55, 254, 253, 2652, 2861, 2860, 2859
256, 55, 54, 255, 254, 2651, 2863, 2862, 2861
257, 54, 53, 256, 255, 2650, 2865, 2864, 2863
258, 53, 52, 257, 256, 2649, 2867, 2866, 2865
259, 52, 51, 258, 257, 2648, 2869, 2868, 2867
260, 51, 50, 259, 258, 2647, 2871, 2870, 2869
261, 50, 49, 260, 259, 2646, 2873, 2872, 2871
262, 49, 48, 261, 260, 2645, 2875, 2874, 2873
263, 48, 47, 262, 261, 2644, 2877, 2876, 2875
264, 47, 46, 263, 262, 2643, 2879, 2878, 2877
265, 46, 45, 264, 263, 2642, 2881, 2880, 2879
266, 45, 44, 265, 264, 2641, 2883, 2882, 2881
267, 44, 43, 266, 265, 2640, 2885, 2884, 2883
268, 43, 42, 267, 266, 2639, 2887, 2886, 2885
269, 42, 41, 268, 267, 2638, 2889, 2888, 2887
270, 41, 40, 269, 268, 2637, 2891, 2890, 2889
** ... 2480 like lines cut
*Nset, Nset=bottom
1, 2, 5, 7, 8, 9, 10, 2602, 2603, 2604, 2605, 2606, 113, 114, 115, 116
117, 118, 119, 120, 121, 122, 123, 124, 125, 126, 127, 128, 129, 130, 131, 132
133, 134, 135, 136, 137, 138, 139, 140, 141, 142, 143, 144, 145, 146, 147, 148
149, 150, 151, 152, 153, 154, 155, 156, 2712, 2713, 2714, 2715, 2716, 2717, 2718, 2719
2720, 2721, 2722, 2723, 2724, 2725, 2726, 2727, 2728, 2729, 2730, 2731, 2732, 2733, 2734, 2735
2736, 2737, 2738, 2739, 2740, 2741, 2742, 2743, 2744, 2745, 2746, 2747, 2748, 2749, 2750, 2751
2752, 2753, 2754, 2755, 2756
*Nset, Nset=left
2, 4, 64, 65, 66, 67, 68, 69, 70, 71, 72, 73, 74, 75, 76, 77
78, 79, 80, 81, 82, 83, 84, 85, 86, 87, 88, 89, 90, 91, 92, 93
94, 95, 96, 97, 98, 99, 100, 101, 102, 103, 104, 105, 106, 107, 108, 109
110, 111, 112, 2662, 2663, 2664, 2665, 2666, 2667, 2668, 2669, 2670, 2671, 2672, 2673, 2674
2675, 2676, 2677, 2678, 2679, 2680, 2681, 2682, 2683, 2684, 2685, 2686, 2687, 2688, 2689, 2690
2691, 2692, 2693, 2694, 2695, 2696, 2697, 2698, 2699, 2700, 2701, 2702, 2703, 2704, 2705, 2706
2707, 2708, 2709, 2710, 2711
*Nset, Nset=right
5, 6, 157, 158, 159, 160, 161, 162, 163, 164, 165, 166, 167, 168, 169, 170
171, 172, 173, 174, 175, 176, 177, 178, 179, 180, 181, 182, 183, 184, 185, 186
187, 188, 189, 190, 191, 192, 193, 194, 195, 196, 197, 198, 199, 200, 201, 202
203, 204, 205, 2757, 2758, 2759, 2760, 2761, 2762, 2763, 2764, 2765, 2766, 2767, 2768, 2769
2770, 2771, 2772, 2773, 2774, 2775, 2776, 2777, 2778, 2779, 2780, 2781, 2782, 2783, 2784, 2785
2786, 2787, 2788, 2789, 2790, 2791, 2792, 2793, 2794, 2795, 2796, 2797, 2798, 2799, 2800, 2801
2802, 2803, 2804, 2805, 2806
*Nset, Nset=top
3, 4, 6, 60, 61, 62, 63, 2657, 2658, 2659, 2660, 2661, 206, 207, 208, 209
210, 211, 212, 213, 214, 215, 216, 217, 218, 219, 220, 221, 222, 223, 224, 225
226, 227, 228, 229, 230, 231, 232, 233, 234, 235, 236, 237, 238, 239, 240, 241
242, 243, 244, 245, 246, 247, 248, 249, 2807, 2808, 2809, 2810, 2811, 2812, 2813, 2814
2815, 2816, 2817, 2818, 2819, 2820, 2821, 2822, 2823, 2824, 2825, 2826, 2827, 2828, 2829, 2830
2831, 2832, 2833, 2834, 2835, 2836, 2837, 2838, 2839, 2840, 2841, 2842, 2843, 2844, 2845, 2846
2847, 2848, 2849, 2850, 2851
*Nset, Nset=all
1, 2, 3, 4, 5, 6, 7, 8, 9, 10, 2602, 2603, 2604, 2605, 2606, 60
61, 62, 63, 2657, 2658, 2659, 2660, 2661, 11, 12, 13, 14, 15, 16, 17, 18
19, 20, 21, 22, 23, 24, 25, 26, 27, 28, 29, 30, 31, 32, 33, 34
35, 36, 37, 38, 39, 40, 41, 42, 43, 44, 45, 46, 47, 48, 49, 50
51, 52, 53, 54, 55, 56, 57, 58, 59, 2607, 2608, 2609, 2610, 2611, 2612, 2613
2614, 2615, 2616, 2617, 2618, 2619, 2620, 2621, 2622, 2623, 2624, 2625, 2626, 2627, 2628, 2629
2630, 2631, 2632, 2633, 2634, 2635, 2636, 2637, 2638, 2639, 2640, 2641, 2642, 2643, 2644, 2645
2646, 2647, 2648, 2649, 2650, 2651, 2652, 2653, 2654, 2655, 2656, 64, 65, 66, 67, 68
69, 70, 71, 72, 73, 74, 75, 76, 77, 78, 79, 80, 81, 82, 83, 84
85, 86, 87, 88, 89, 90, 91, 92, 93, 94, 95, 96, 97, 98, 99, 100
101, 102, 103, 104, 105, 106, 107, 108, 109, 110, 111, 112, 2662, 2663, 2664, 2665
2666, 2667, 2668, 2669, 2670, 2671, 2672, 2673, 2674, 2675, 2676, 2677, 2678, 2679, 2680, 2681
2682, 2683, 2684, 2685, 2686, 2687, 2688, 2689, 2690, 2691, 2692, 2693, 2694, 2695, 2696, 2697
2698, 2699, 2700, 2701, 2702, 2703, 2704, 2705, 2706, 2707, 2708, 2709, 2710, 2711, 206, 207
208, 209, 210, 211, 212, 213, 214, 215, 216, 217, 218, 219, 220, 221, 222, 223
224, 225, 226, 227, 228, 229, 230, 231, 232, 233, 234, 235, 236, 237, 238, 239
240, 241, 242, 243, 244, 245, 246, 247, 248, 249, 2807, 2808, 2809, 2810, 2811, 2812
2813, 2814, 2815, 2816, 2817, 2818, 2819, 2820, 2821, 2822, 2823, 2824, 2825, 2826, 2827, 2828
2829, 2830, 2831, 2832, 2833, 2834, 2835, 2836, 2837, 2838, 2839, 2840, 2841, 2842, 2843, 2844
2845, 2846, 2847, 2848, 2849, 2850, 2851, 113, 114, 115, 116, 117, 118, 119, 120, 121
** ... 462 like lines cut
*Elset, Elset=all
501, 502, 503, 504, 505, 506, 507, 508, 509, 510, 511, 512, 513, 514, 515, 516
517, 518, 519, 520, 521, 522, 523, 524, 525, 526, 527, 528, 529, 530, 531, 532
533, 534, 535, 536, 537, 538, 539, 540, 541, 542, 543, 544, 545, 546, 547, 548
549, 550, 551, 552, 553, 554, 555, 556, 557, 558, 559, 560, 561, 562, 563, 564
565, 566, 567, 568, 569, 570, 571, 572, 573, 574, 575, 576, 577, 578, 579, 580
581, 582, 583, 584, 585, 586, 587, 588, 589, 590, 591, 592, 593, 594, 595, 596
597, 598, 599, 600, 601, 602, 603, 604, 605, 606, 607, 608, 609, 610, 611, 612
613, 614, 615, 616, 617, 618, 619, 620, 621, 622, 623, 624, 625, 626, 627, 628
629, 630, 631, 632, 633, 634, 635, 636, 637, 638, 639, 640, 641, 642, 643, 644
645, 646, 647, 648, 649, 650, 651, 652, 653, 654, 655, 656, 657, 658, 659, 660
661, 662, 663, 664, 665, 666, 667, 668, 669, 670, 671, 672, 673, 674, 675, 676
677, 678, 679, 680, 681, 682, 683, 684, 685, 686, 687, 688, 689, 690, 691, 692
693, 694, 695, 696, 697, 698, 699, 700, 701, 702, 703, 704, 705, 706, 707, 708
709, 710, 711, 712, 713, 714, 715, 716, 717, 718, 719, 720, 721, 722, 723, 724
725, 726, 727, 728, 729, 730, 731, 732, 733, 734, 735, 736, 737, 738, 739, 740
741, 742, 743, 744, 745, 746, 747, 748, 749, 750, 751, 752, 753, 754, 755, 756
757, 758, 759, 760, 761, 762, 763, 764, 765, 766, 767, 768, 769, 770, 771, 772
773, 774, 775, 776, 777, 778, 779, 780, 781, 782, 783, 784, 785, 786, 787, 788
789, 790, 791, 792, 793, 794, 795, 796, 797, 798, 799, 800, 801, 802, 803, 804
805, 806, 807, 808, 809, 810, 811, 812, 813, 814, 815, 816, 817, 818, 819, 820
** ... 137 like lines cut
*Nset, Nset=top-load
4, 2657, 60, 2658, 61, 2659, 62, 2660, 63, 2661, 3
*Nset, Nset=top-left
4
*Elset, Elset=top-load-elements
300, 350, 400, 450, 500
*Solid Section, Elset=all, Material=Hardening-Soil-MN-Bricks
*End Part
**
** ASSEMBLY
**
** Assembly-level sets are deliberate aliases of the instance sets. This keeps
** the external references as Soil.all, Soil.left, Soil.right, etc.
*Assembly, name=Soil
*Instance, Name=Soil-1, Part=Soil
*End Instance
*Nset, Nset=bottom
Soil-1.bottom
*Nset, Nset=left
Soil-1.left
*Nset, Nset=right
Soil-1.right
*Nset, Nset=top
Soil-1.top
*Nset, Nset=all
Soil-1.all
*Nset, Nset=top-load
Soil-1.top-load
*Nset, Nset=top-left
Soil-1.top-left
*Elset, Elset=all
Soil-1.all
*Elset, Elset=top-load-elements
Soil-1.top-load-elements
*Surface, Type=ELEMENT, Name=surf_soil_top
Soil-1.top-load-elements, S2
*End Assembly
**
** MATERIAL
**
** The material name must match CMNAME checked explicitly by the supplied UMAT.
*Material, Name=Hardening-Soil-MN-Bricks
*Depvar
73
*User Material, constants=16, unsymm
30d3, 30d3, 90d3, 0.55, 0, 42, 16, 0.25
** pref, K0nc, Rf, Eiref, alpha, Hpp, gamma_07, G0
100, 0.4, 0.9, 65.5d3, 1.47, 41194, 2e-4, 108e3
*Density
1.7
**
** INITIAL CONDITIONS
**
*Initial conditions, Type=stress, geostatic
Soil.all, 0, 10, -170, 0, 0.4408, 0.4408
***Initial conditions, Type=solution, user
**
** AMPLITUDES
**
*Amplitude, Name=LoadingRamp
0.0, 0.0, 1.0, 1.0
**
** LOAD STEP 1
**
*Step, Name=step1, inc=1, unsymm=yes
*Geostatic
*DLoad
Soil.all, GRAV, 10.0, 0.0, -1.0
*Boundary
Soil.left, 1, 1, 0.0
Soil.right, 1, 1, 0.0
Soil.bottom, 1, 2, 0.0
*Output, field, frequency=1
*Node Output, Nset=Soil.all
U
*Element Output, Elset=Soil.all
S, E
*Controls, parameters=field, field=displacement
0.05, 0.1, , , , , , 
,0.001
*End Step
**
** LOAD STEP 2
**
*Step, Name=step2, inc=10000, unsymm=yes
*Static
0.001, 1.0, 0.0001, 0.005
*Boundary
Soil.left, 1, 1, 0.0
Soil.right, 1, 1, 0.0
Soil.bottom, 1, 2, 0.0
*DSload, amplitude=LoadingRamp
Soil.surf_soil_top, P, 1000.0
*Output, field, frequency=1
*Node Output, Nset=Soil.all
U
*Element Output, Elset=Soil.all
S, E
*Output, history, frequency=1
*Node Output, Nset=Soil.top-left
U
*End Step
